USE_REGRIDDING = True             ! use ALE regridding
REGRIDDING_COORDINATE_MODE = "Z*" ! regrid onto z* coordinate
